*EXP.DETAILS: PILI0001SN BAWP EXPERIMENTS                                            

*FILES
@N  EXP.DATA    AFILE        ADIR
  1 EXP         PILI0001.SNA C:\IRI\PH\CAMDT_2016\GUI_test\                                                  
@N  SPECIES     SPFILE       SPDIR
  1 SPE         RICER045.SPE                                                                                 
@N  ECOTYPE     EFILE        EDIR
  1 ECO         RICER045.ECO C:\DSSAT45\GENOTYPE\                                                            
@N  CULTIVAR    CFILE        CDIR
  1 CUL         RICER045.CUL                                                                                 
@N  SOIL        SFILE        SDIR
  1 SOIL        WI.SOL                                                                                       
@N  WEATHER     WFILE        WDIR
  1 WEATH       PILI0901.WTH                                                                                 

*SIMULATION CONTROL
@N  GENERAL     NYERS NREPS START   SDATE RSEED SNAME.................... MODEL...
  1 GE              1     1     S 2009319  2150 .IRRI, PILA JAN 85 UREASE RICER045
@N  OPTIONS     WATER NITRO SYMBI PHOSP POTAS DISES  CHEM  TILL   CO2
  1 OP              Y     Y     N     N     N     N     N     N     M
@N  METHODS     WTHER INCON LIGHT EVAPO INFIL PHOTO HYDRO NSWIT SOMDY MESEV MESOL
  1 ME              M     M     E     R     S     C     R     1     G     S     2
@N  MANAGEMENT  PLANT IRRIG FERTI RESID HARVS
  1 MA              R     R     D     R     M
@N  OUTPUTS     FNAME OVVEW SUMRY FROPT GROUT CAOUT WAOUT NIOUT MIOUT DIOUT  LONG CHOUT OPOUT
  1 OU              N     Y     Y     1     Y     N     Y     Y     N     N     D     N     N

!AUTOMATIC MANAGEM
@N  PLANTING      PFRST   PLAST PH2OL PH2OU PH2OD PSTMX PSTMN
  1 PL          1985028 1985042   40.  100.   30.   40.   10.
@N  IRRIGATION  IMDEP ITHRL ITHRU IROFF IMETH IRAMT IREFF
  1 IR            30.   50.  100. IB001 IB001  10.0 1.000
@N  NITROGEN    NMDEP NMTHR NAMNT NCODE NAOFF
  1 NI            30.   50.   25. IB001 IB001
@N  RESIDUES    RIPCN RTIME RIDEP
  1 RE           100.     1   20.
@N  HARVEST     HFRST   HLAST HPCNP HRCNR
  1 HA              0 1986035  100.    0.

*TREATMENTS
@N   R O C TNAME....................  CU  FL  SA  IC  MP  MI  MF  MR  MC  MT  ME  MH  SM
101  1 0 0 Bicol_run1                  1 101   0   1   1   1   1   0   0   0   0   0   1

*CULTIVARS
@C  CR INGENO CNAME
  1 RI PHPS01 PSB Rc82        

*FIELDS
@L  ID_FIELD WSTA....  FLSA  FLOB  FLDT  FLDD  FLDS  FLST SLTX   SLDP ID_SOIL
101 PILI0101 PILI0901   0.0    0. DR000    0.  100. 00000 SCL     50. WI_ANPH007
@L             XCRD            YCRD      ELEV              AREA  SLEN  FLWR  SLAS PRMGT
101         0.00000         0.00000      0.00               1.0  100.   1.0   0.0   -99   -99

*INITIAL CONDITIONS
@C  PCR     ICDAT  ICRT  ICND  ICRN  ICRE  ICWD ICRES ICREN ICREP ICRIP ICRID
  1 RI    2009319   300     0  1.00  1.00   0.0     0  0.00  0.00  100.   15.
@C   ICBL  SH2O  SNH4  SNO3
  1    5. 0.337  12.7   0.1
  1   15. 0.337  12.7   0.1
  1   30. 0.350  12.7   0.1
  1   40. 0.357   3.2   0.1
  1   50. 0.357   3.2   0.1
  1   60. 0.311   3.2   0.1
  1   70. 0.311   3.2   0.1
  1   85. 0.145   3.2   0.1
  1   90. 0.085   3.2   0.1

*PLANTING DETAILS
@P    PDATE   EDATE  PPOP  PPOE  PLME  PLDS  PLRS  PLRD  PLDP  PLWT  PAGE  PENV  PLPH  SPRL
  1 2009349     -99  75.0  25.0     T     R   20.    0.   2.0    0.   23.  25.0   3.0   0.0

*IRRIGATION
@I   IEFF  IDEP  ITHR  IEPT  IOFF  IAME  IAMT
  1 1.000   30.   75.  -99. GS000 IR001   1.0
@I    IDATE  IROP IRVAL
  1 2009344 IR008   2.0
  1 2009344 IR010   0.0
  1 2009349 IR011   0.0
  1 2009349 IR009  50.0

*FERTILIZERS
@F    FDATE  FMCD  FACD  FDEP  FAMN  FAMP  FAMK  FAMC  FAMO  FOCD
  1      17 FE005 AP012    1.   35.  -99.  -99.  -99.  -99.   -99
  1      32 FE005 AP012    1.   35.  -99.  -99.  -99.  -99.   -99

*RESIDUES
@R    RDATE  RCOD  RAMT  RESN  RESP  RESK  RINP  RDEP  RMET

*CHEMICALS
@C    CDATE CHCOD CHAMT  CHME CHDEP   CHT

*TILLAGE
@T    TDATE TIMPL  TDEP

*ENVIRONMENT
@E    ODATE  EDAY  ERAD  EMAX  EMIN ERAIN  ECO2  EDEW EWIND

*HARVEST
@H    HDATE  HSTG  HCOM HSIZE   HPC  HBPC
