*MODEL INPUT FILE            B   101     1   101   999     0
*FILES              
MODEL          RICER045
FILEX          PILI0001.SNX C:\IRI\PH\CAMDT_2016\GUI_test\                                                  
FILEA          PILI0001.SNA C:\IRI\PH\CAMDT_2016\GUI_test\                                                  
FILET          PILI0001.SNT C:\IRI\PH\CAMDT_2016\GUI_test\                                                  
SPECIES        RICER045.SPE                                                                                 
ECOTYPE        RICER045.ECO C:\DSSAT45\GENOTYPE\                                                            
CULTIVAR       RICER045.CUL                                                                                 
PESTS          RICER045.PST C:\DSSAT45\PEST\                                                                
SOILS          WI.SOL                                                                                       
WEATHER        PILI0901.WTH                                                                                 
OUTPUT         OVERVIEW
*SIMULATION CONTROL 
                   1     1     S 2009319  2150  IRRI, PILA JAN 85 UREASE
                   Y     Y     N     N     N     N     N     N     M
                   M     M     E     R     S     C     R     1     G     S     2
                   R     R     D     R     M
                   N     Y     Y     1     Y     N     Y     Y     N     N     D     N     N
!AUTOMATIC MANAGEM  
               1985028 1985042   40.  100.   30.   40.   10.
                 30.   50.  100. IB001 IB001  10.0 1.000
                 30.   50.   25. IB001 IB001
                100.     1   20.
                     0 1986035  100.    0.
*EXP.DETAILS        
  1PILI0001 SN BAWP EXPERIMENTS                                            
*TREATMENTS         
101 1 0 0 Bicol_run1               
*CULTIVARS          
   RI PHPS01 PSB Rc82        
*FIELDS             
   PILI0101 PILI0901   0.0    0. DR000    0. 100.0 00000 SCL     50. WI_ANPH007
           0.00000         0.00000      0.00               1.0  100.   1.0   0.0   -99   -99
*INITIAL CONDITIONS 
   RI    2009319   300     0  1.00  1.00   0.0     0  0.00  0.00  100.   15.
      5. 0.337  12.7 0.100
     15. 0.337  12.7 0.100
     30. 0.350  12.7 0.100
     40. 0.357  3.20 0.100
     50. 0.357  3.20 0.100
     60. 0.311  3.20 0.100
     70. 0.311  3.20 0.100
     85. 0.145  3.20 0.100
     90. 0.085  3.20 0.100
*PLANTING DETAILS   
   2009349     -99  75.0  25.0     T     R   20.    0.   2.0    0.   23.  25.0   3.0   0.0
*IRRIGATION         
   1.000   30.   75.  -99. GS000 IR001   1.0
   2009344 IR008   2.0
   2009344 IR010   0.0
   2009349 IR011   0.0
   2009349 IR009  50.0
*FERTILIZERS        
        17 FE005 AP012    1.   35.  -99.  -99.  -99.  -99.   -99
        32 FE005 AP012    1.   35.  -99.  -99.  -99.  -99.   -99
*RESIDUES           
*CHEMICALS          
*TILLAGE            
*ENVIRONMENT        
*HARVEST            
*SOIL               
 WI_ANPH007  WISE        SCL     50. WISE DATABASE, SOIL PH007                         
 -99         Philippines  13.433 123.400 Mollic Andosol (ANm)                              
 BK     0.09   9.8  0.60   75.  1.00  1.00 SA001 SA001 SA001 -99  
    5.       0.149 0.337 0.523 1.000  1.24  1.12 4.200  23.0  23.0 -99.0 0.260  6.40  5.50 27.70-99.00
   15.       0.149 0.337 0.523 1.000  1.24  1.12 4.200  23.0  23.0 -99.0 0.260  6.40  5.50 27.70-99.00
   30.       0.172 0.350 0.532 0.640  1.12  1.12 2.700  27.0  29.0 -99.0 0.150  6.40  5.30 25.80-99.00
   40.       0.180 0.357 0.523 0.450 0.910  1.16 1.800  27.0  28.0 -99.0 0.120  6.40  5.70 22.90-99.00
   50.       0.180 0.357 0.523 0.450 0.910  1.16 1.800  27.0  28.0 -99.0 0.120  6.40  5.70 22.90-99.00
   60.       0.136 0.311 0.519 0.300  1.77  1.18 1.300  27.0  25.0 -99.0 0.100  6.60  5.20 21.50-99.00
   70.       0.136 0.311 0.519 0.300  1.77  1.18 1.300  27.0  25.0 -99.0 0.100  6.60  5.20 21.50-99.00
   85.       0.048 0.145 0.382 0.210  10.6  1.55 0.400  10.0  12.0 -99.0 0.040  6.70  5.90 12.00-99.00
   90.       0.018 0.085 0.363 0.170  40.5  1.61 0.200   3.0   9.0 -99.0 0.020  6.70  5.30  8.10-99.00
                    
    5.-99.00 -99.0 -99.0 -99.0 -99.0 -99.0 -99.0  77.0 -99.0 -99.0  2.40   5.7   0.3 -99.0 -99.0  13.0  -99.
   15.-99.00 -99.0 -99.0 -99.0 -99.0 -99.0 -99.0  77.0 -99.0 -99.0  2.40   5.7   0.3 -99.0 -99.0  13.0  -99.
   30.-99.00 -99.0 -99.0 -99.0 -99.0 -99.0 -99.0  79.0 -99.0 -99.0  1.80   5.9   0.4 -99.0 -99.0  12.3  -99.
   40.-99.00 -99.0 -99.0 -99.0 -99.0 -99.0 -99.0  82.0 -99.0 -99.0  2.20   4.8   0.6 -99.0 -99.0  11.2  -99.
   50.-99.00 -99.0 -99.0 -99.0 -99.0 -99.0 -99.0  82.0 -99.0 -99.0  2.20   4.8   0.6 -99.0 -99.0  11.2  -99.
   60.-99.00 -99.0 -99.0 -99.0 -99.0 -99.0 -99.0  83.0 -99.0 -99.0  1.90   5.4   0.8 -99.0 -99.0   9.8  -99.
   70.-99.00 -99.0 -99.0 -99.0 -99.0 -99.0 -99.0  83.0 -99.0 -99.0  1.90   5.4   0.8 -99.0 -99.0   9.8  -99.
   85.-99.00 -99.0 -99.0 -99.0 -99.0 -99.0 -99.0  74.0 -99.0 -99.0  1.00   1.8   0.4 -99.0 -99.0   5.7  -99.
   90.-99.00 -99.0 -99.0 -99.0 -99.0 -99.0 -99.0  83.0 -99.0 -99.0  0.80   1.5   0.3 -99.0 -99.0   4.1  -99.
*CULTIVAR           
PHPS01 PSB Rc82         IB0001 447.9   4.4 420.0  11.9  88.60.0250  1.00  1.00
